LTspice 24.0.12 for Windows
Circuit: * G:\My Drive\School\Electrical\ECT\HW\HW7\hw7_prob6.asc
Start Time: Sat Nov 22 16:12:21 2025
solver = Normal
Maximum thread count: 12
tnom = 27
temp = 27
method = modified trap
.OP point found by inspection.
Total elapsed time: 0.224 seconds.

