LTspice 24.0.12 for Windows
Circuit: * G:\My Drive\School\Electrical\ECT\HW\HW7\hw7_prob2.asc
Start Time: Sat Nov 22 16:09:31 2025
solver = Normal
Maximum thread count: 12
tnom = 27
temp = 27
method = modified trap
WARNING: Less than two connections to node vx.  This node is used by e1.
.OP point found by inspection.
Total elapsed time: 0.162 seconds.

