LTspice 24.0.12 for Windows
Circuit: * G:\My Drive\School\Electrical\ECT\HW\HW7\hw7_prob1b.asc
Start Time: Sat Nov 22 16:08:00 2025
solver = Normal
Maximum thread count: 12
tnom = 27
temp = 27
method = modified trap
.OP point found by inspection.

freqval: ph(v(vzeq))=0 AT 71.1796537316
zeqval: v(vzeq)=(0.999924090883,3.18281169982e-05°) at 71.1796537316
reqval: re(v(vzeq))=(0.999924090883,0°) at 71.1796537316

Total elapsed time: 0.148 seconds.

