LTspice 24.0.12 for Windows
Circuit: * G:\My Drive\School\Electrical\ECT\HW\HW7\hw7_prob3.asc
Start Time: Sat Nov 22 16:10:19 2025
solver = Normal
Maximum thread count: 12
tnom = 27
temp = 27
method = modified trap
WARNING: Less than two connections to node vout.  This node is used by e2.
.OP point found by inspection.
Total elapsed time: 0.171 seconds.

