LTspice 24.0.12 for Windows
Circuit: * C:\Users\austi\OneDrive\School\Electrical\ECT\HW\HW2\Draft5.asc
Start Time: Thu Sep 18 14:52:38 2025
solver = Normal
Maximum thread count: 12
tnom = 27
temp = 27
method = modified trap
Direct Newton iteration for .op point succeeded.
Total elapsed time: 0.088 seconds.

