LTspice 24.0.12 for Windows
Circuit: * G:\My Drive\School\Electrical\ECT\HW\HW6\Spice Verification\hw6_prob2.asc
Start Time: Wed Oct 29 00:01:24 2025
solver = Normal
Maximum thread count: 12
tnom = 27
temp = 27
method = modified trap
Direct Newton iteration for .op point succeeded.

maxerror: MAX(abs(i(v3)-i(v4)))=0.000199601196808 FROM 0 TO 0.0025

Total elapsed time: 0.337 seconds.

