LTspice 24.0.12 for Windows
Circuit: * G:\My Drive\School\Electrical\ECT\HW\HW6\Spice Verification\hw6_prob3.asc
Start Time: Tue Oct 28 23:59:21 2025
solver = Normal
Maximum thread count: 12
tnom = 27
temp = 27
method = modified trap
WARNING: Less than two connections to node voutcheck.  This node is used by b1.
Direct Newton iteration for .op point succeeded.

maxerror: MAX(abs(v(vout)-v(voutcheck)))=0.000112577250486 FROM 0 TO 0.5

Total elapsed time: 0.312 seconds.

