LTspice 24.0.12 for Windows
Circuit: * G:\My Drive\School\Electrical\ECT\HW\HW6\Spice Verification\hw6_prob4.asc
Start Time: Wed Oct 29 00:03:40 2025
solver = Normal
Maximum thread count: 12
tnom = 27
temp = 27
method = modified trap
WARNING: Less than two connections to node vxcheck.  This node is used by b1.
Direct Newton iteration for .op point succeeded.

maxerror: MAX(abs(v(vx)-v(vxcheck)))=0.0050673314236 FROM 0 TO 0.16

Total elapsed time: 0.260 seconds.

