LTspice 24.0.12 for Windows
Circuit: * C:\Users\austi\OneDrive\School\Electrical\ECT\HW\HW3\Draft1.asc
Start Time: Mon Sep 22 15:10:04 2025
solver = Normal
Maximum thread count: 12
tnom = 27
temp = 27
method = modified trap
Direct Newton iteration for .op point succeeded.
Total elapsed time: 0.047 seconds.

